powerfulcases/cases/matpower/case60nordic/case60nordic.raw
0, 100, 33, 0, 0, 60  / 28-Jan-2026 21:52:52 - MATPOWER 8.1


     1, 'BUS 1       ',       130, 1,    1,    1, 1,    1.064082,  -15.563001,  1.1,  0.9,  1.1,  0.9
     2, 'BUS 2       ',       130, 1,    1,    1, 1,    1.083567,   -14.09203,  1.1,  0.9,  1.1,  0.9
     3, 'BUS 3       ',       130, 1,    1,    1, 1,    1.058654,  -10.182816,  1.1,  0.9,  1.1,  0.9
     4, 'BUS 4       ',       130, 1,    1,    1, 1,    1.096596,    -17.7009,  1.1,  0.9,  1.1,  0.9
     5, 'BUS 5       ',       130, 1,    1,    1, 1,    1.053068,  -41.503713,  1.1,  0.9,  1.1,  0.9
     6, 'BUS 6       ',       130, 1,    1,    1, 1,    1.045071,  -28.663263,  1.1,  0.9,  1.1,  0.9
     7, 'BUS 7       ',       130, 1,    1,    1, 1,    1.057085,  -37.808583,  1.1,  0.9,  1.1,  0.9
     8, 'BUS 8       ',       130, 1,    1,    1, 1,    1.061996,  -33.606318,  1.1,  0.9,  1.1,  0.9
     9, 'BUS 9       ',       130, 1,    1,    1, 1,    1.067548,  -36.331543,  1.1,  0.9,  1.1,  0.9
    10, 'BUS 10      ',       220, 1,    1,    1, 1,    1.079598,  -22.844109,  1.1,  0.9,  1.1,  0.9
    11, 'BUS 11      ',       220, 1,    1,    1, 1,    1.018959,  -15.053383,  1.1,  0.9,  1.1,  0.9
    12, 'BUS 12      ',       400, 1,    1,    1, 1,    0.991571,  -26.531716,  1.1,  0.9,  1.1,  0.9
    13, 'BUS 13      ',       400, 1,    1,    1, 1,    1.004524,  -32.784826,  1.1,  0.9,  1.1,  0.9
    14, 'BUS 14      ',       400, 1,    1,    1, 1,     1.08107,  -32.180729,  1.1,  0.9,  1.1,  0.9
    15, 'BUS 15      ',       400, 1,    1,    1, 1,    1.060573,  -28.088084,  1.1,  0.9,  1.1,  0.9
    16, 'BUS 16      ',       400, 1,    1,    1, 1,    1.045303,  -28.404205,  1.1,  0.9,  1.1,  0.9
    17, 'BUS 17      ',       400, 1,    1,    1, 1,    1.031922,  -26.304401,  1.1,  0.9,  1.1,  0.9
    18, 'BUS 18      ',       400, 1,    1,    1, 1,    1.036064,  -19.430476,  1.1,  0.9,  1.1,  0.9
    19, 'BUS 19      ',       400, 1,    1,    1, 1,    1.046955,  -33.337959,  1.1,  0.9,  1.1,  0.9
    20, 'BUS 20      ',       400, 1,    1,    1, 1,    1.025557,  -40.764411,  1.1,  0.9,  1.1,  0.9
    21, 'BUS 21      ',       400, 1,    1,    1, 1,    1.028314,  -39.398039,  1.1,  0.9,  1.1,  0.9
    22, 'BUS 22      ',       400, 1,    1,    1, 1,    1.013333,   -39.21771,  1.1,  0.9,  1.1,  0.9
    23, 'BUS 23      ',       400, 1,    1,    1, 1,    0.985738,  -15.214764,  1.1,  0.9,  1.1,  0.9
    24, 'BUS 24      ',       130, 1,    1,    1, 1,    1.067034,   -8.648865,  1.1,  0.9,  1.1,  0.9
    25, 'BUS 25      ',       130, 1,    1,    1, 1,     1.07502,   -2.638356,  1.1,  0.9,  1.1,  0.9
    26, 'BUS 26      ',       400, 1,    1,    1, 1,    0.986067,  -15.919696,  1.1,  0.9,  1.1,  0.9
    27, 'BUS 27      ',       400, 1,    1,    1, 1,    1.068863,  -21.576377,  1.1,  0.9,  1.1,  0.9
    28, 'BUS 28      ',       400, 1,    1,    1, 1,    1.032869,  -18.827698,  1.1,  0.9,  1.1,  0.9
    29, 'BUS 29      ',       400, 1,    1,    1, 1,    1.068559,  -25.255516,  1.1,  0.9,  1.1,  0.9
    30, 'BUS 30      ',       400, 1,    1,    1, 1,    0.978794,  -32.626173,  1.1,  0.9,  1.1,  0.9
    31, 'BUS 31      ',       400, 1,    1,    1, 1,    1.053472,   -24.01627,  1.1,  0.9,  1.1,  0.9
    32, 'BUS 32      ',       400, 1,    1,    1, 1,    1.049524,  -39.582141,  1.1,  0.9,  1.1,  0.9
    33, 'BUS 33      ',       400, 1,    1,    1, 1,    1.049524,  -39.582141,  1.1,  0.9,  1.1,  0.9
    34, 'BUS 34      ',       400, 1,    1,    1, 1,    1.020882,  -30.156834,  1.1,  0.9,  1.1,  0.9
    35, 'BUS 35      ',       400, 1,    1,    1, 1,    1.021283,   -35.89561,  1.1,  0.9,  1.1,  0.9
    36, 'BUS 36      ',       400, 1,    1,    1, 1,    1.065873,  -31.893982,  1.1,  0.9,  1.1,  0.9
    37, 'BUS 37      ',       400, 1,    1,    1, 1,     1.06957,  -34.842542,  1.1,  0.9,  1.1,  0.9
    38, 'BUS 38      ',        15, 2,    1,    1, 1,        1.07,  -10.727834,  1.1,  0.9,  1.1,  0.9
    39, 'BUS 39      ',        15, 2,    1,    1, 1,       1.055,    -6.69034,  1.1,  0.9,  1.1,  0.9
    40, 'BUS 40      ',        15, 2,    1,    1, 1,        1.06,   -4.765096,  1.1,  0.9,  1.1,  0.9
    41, 'BUS 41      ',        15, 2,    1,    1, 1,        1.07,    1.126925,  1.1,  0.9,  1.1,  0.9
    42, 'BUS 42      ',        15, 2,    1,    1, 1,        1.07,  -12.172581,  1.1,  0.9,  1.1,  0.9
    43, 'BUS 43      ',        15, 2,    1,    1, 1,    1.063348,  -22.570252,  1.1,  0.9,  1.1,  0.9
    44, 'BUS 44      ',        15, 2,    1,    1, 1,     1.05399,  -30.566378,  1.1,  0.9,  1.1,  0.9
    45, 'BUS 45      ',        15, 2,    1,    1, 1,      1.0042,  -10.001941,  1.1,  0.9,  1.1,  0.9
    46, 'BUS 46      ',        15, 2,    1,    1, 1,      0.9989,  -12.116254,  1.1,  0.9,  1.1,  0.9
    47, 'BUS 47      ',        15, 2,    1,    1, 1,      1.0019,  -10.828162,  1.1,  0.9,  1.1,  0.9
    48, 'BUS 48      ',        15, 2,    1,    1, 1,      1.0336,  -15.443018,  1.1,  0.9,  1.1,  0.9
    49, 'BUS 49      ',        15, 2,    1,    1, 1,      1.0141,  -17.248593,  1.1,  0.9,  1.1,  0.9
    50, 'BUS 50      ',        15, 2,    1,    1, 1,           1,  -32.180757,  1.1,  0.9,  1.1,  0.9
    51, 'BUS 51      ',        15, 2,    1,    1, 1,      1.0113,  -24.187821,  1.1,  0.9,  1.1,  0.9
    52, 'BUS 52      ',        15, 3,    1,    1, 1,      1.0611,           0,  1.1,  0.9,  1.1,  0.9
    53, 'BUS 53      ',        15, 2,    1,    1, 1,      1.0611,  -15.560206,  1.1,  0.9,  1.1,  0.9
    54, 'BUS 54      ',        15, 2,    1,    1, 1,      1.0447,  -29.738419,  1.1,  0.9,  1.1,  0.9
    55, 'BUS 55      ',        15, 2,    1,    1, 1,      1.0369,  -29.376407,  1.1,  0.9,  1.1,  0.9
    56, 'BUS 56      ',        15, 2,    1,    1, 1,      1.0116,  -35.252215,  1.1,  0.9,  1.1,  0.9
    57, 'BUS 57      ',        15, 2,    1,    1, 1,       1.029,  -35.081723,  1.1,  0.9,  1.1,  0.9
    58, 'BUS 58      ',        15, 2,    1,    1, 1,       1.029,  -35.081723,  1.1,  0.9,  1.1,  0.9
    59, 'BUS 59      ',        15, 2,    1,    1, 1,        1.03,  -22.374519,  1.1,  0.9,  1.1,  0.9
    60, 'BUS 60      ',        15, 2,    1,    1, 1,      1.0185,  -30.364105,  1.1,  0.9,  1.1,  0.9
0 / END OF BUS DATA, BEGIN LOAD DATA
     1,  1, 1,    1,    1,       200,        80, 0, 0, 0, 0, 1, 1, 0
     2,  1, 1,    1,    1,       300,       100, 0, 0, 0, 0, 1, 1, 0
     3,  1, 1,    1,    1,       100,        40, 0, 0, 0, 0, 1, 1, 0
     4,  1, 1,    1,    1,       280,        95, 0, 0, 0, 0, 1, 1, 0
     5,  1, 1,    1,    1,  402.2198,   190.111, 0, 0, 0, 0, 1, 1, 0
     6,  1, 1,    1,    1,  201.2099,  75.06049, 0, 0, 0, 0, 1, 1, 0
     7,  1, 1,    1,    1,  154.2076,  96.21037, 0, 0, 0, 0, 1, 1, 0
     8,  1, 1,    1,    1,  536.4263,  286.8214, 0, 0, 0, 0, 1, 1, 0
     9,  1, 1,    1,    1,  469.4231,  238.4712, 0, 0, 0, 0, 1, 1, 0
    10,  1, 1,    1,    1,       100,        30, 0, 0, 0, 0, 1, 1, 0
    11,  1, 1,    1,    1,       200,        50, 0, 0, 0, 0, 1, 1, 0
    12,  1, 1,    1,    1,       300,       100, 0, 0, 0, 0, 1, 1, 0
    13,  1, 1,    1,    1,      2000,       500, 0, 0, 0, 0, 1, 1, 0
    14,  1, 1,    1,    1,  362.0178,  151.1009, 0, 0, 0, 0, 1, 1, 0
    15,  1, 1,    1,    1,  268.2132,  143.4107, 0, 0, 0, 0, 1, 1, 0
    16,  1, 1,    1,    1,  603.4296,  288.1715, 0, 0, 0, 0, 1, 1, 0
    17,  1, 1,    1,    1,  469.4231,  238.4712, 0, 0, 0, 0, 1, 1, 0
    18,  1, 1,    1,    1,   67.0033,  48.35017, 0, 0, 0, 0, 1, 1, 0
    19,  1, 1,    1,    1,  536.4263,  288.8214, 0, 0, 0, 0, 1, 1, 0
    20,  1, 1,    1,    1,       500,       149, 0, 0, 0, 0, 1, 1, 0
    21,  1, 1,    1,    1,       300,       100, 0, 0, 0, 0, 1, 1, 0
    22,  1, 1,    1,    1,       590,       300, 0, 0, 0, 0, 1, 1, 0
0 / END OF LOAD DATA, BEGIN FIXED SHUNT DATA
     1, 1, 1,       0, -340.12
     4, 1, 1,       0,     150
     5, 1, 1,       0,     200
     7, 1, 1,       0,     100
     8, 1, 1,       0,     200
     9, 1, 1,       0,     200
    12, 1, 1,       0,    -400
    14, 1, 1,       0,     200
    16, 1, 1,       0,     200
    17, 1, 1,       0,     100
    19, 1, 1,       0,     100
    23, 1, 1,       0,    -100
0 / END OF FIXED SHUNT DATA, BEGIN GENERATOR DATA
    38,  1,  362.8692, -66.76724,       720,      -720,     1.07, 0,     800, 0, 1, 0, 0, 1, 1, 100,       720,        10, 1, 1, 0, 1, 0, 1, 0, 1, 0, 1
    39,  1,  272.1519, -7.123284,       540,      -540,    1.055, 0,     600, 0, 1, 0, 0, 1, 1, 100,       540,        10, 1, 1, 0, 1, 0, 1, 0, 1, 0, 1
    40,  1,  357.5106, -22.67057,       630,      -630,     1.06, 0,     700, 0, 1, 0, 0, 1, 1, 100,       630,        10, 1, 1, 0, 1, 0, 1, 0, 1, 0, 1
    41,  1,  302.1519, -11.54982,       540,      -540,     1.07, 0,     600, 0, 1, 0, 0, 1, 1, 100,       540,        10, 1, 1, 0, 1, 0, 1, 0, 1, 0, 1
    42,  1,  188.3966, -38.33505,       325,      -225,     1.07, 0,     400, 0, 1, 0, 0, 1, 1, 100,       475,        10, 1, 1, 0, 1, 0, 1, 0, 1, 0, 1
    43,  1,  314.5454,  68.56484,       560,      -360, 1.063348, 0,     600, 0, 1, 0, 0, 1, 1, 100,       560,        10, 1, 1, 0, 1, 0, 1, 0, 1, 0, 1
    44,  1,  187.2727,  7.501724,       360,      -280,  1.05399, 0,     400, 0, 1, 0, 0, 1, 1, 100,       380,        10, 1, 1, 0, 1, 0, 1, 0, 1, 0, 1
    45,  1,  510.5485, -61.46713,       965,      -765,   1.0042, 0,    1000, 0, 1, 0, 0, 1, 1, 100,       965,        10, 1, 1, 0, 1, 0, 1, 0, 1, 0, 1
    46,  1,  435.5865,  99.92213,       900,      -900,   0.9989, 0,    1000, 0, 1, 0, 0, 1, 1, 100,       900,        10, 1, 1, 0, 1, 0, 1, 0, 1, 0, 1
    47,  1,  402.8692,  101.7894,       720,      -720,   1.0019, 0,     800, 0, 1, 0, 0, 1, 1, 100,       720,        10, 1, 1, 0, 1, 0, 1, 0, 1, 0, 1
    48,  1,  236.0759, -60.24832,       570,      -370,   1.0336, 0,     600, 0, 1, 0, 0, 1, 1, 100,       570,        10, 1, 1, 0, 1, 0, 1, 0, 1, 0, 1
    49,  1,  293.7553, -75.79542,       515,      -415,   1.0141, 0,     600, 0, 1, 0, 0, 1, 1, 100,       575,        10, 1, 1, 0, 1, 0, 1, 0, 1, 0, 1
    50,  1,         0, -243.2109,       570,      -570,        1, 0,     600, 0, 1, 0, 0, 1, 1, 100,         0,         0, 1, 1, 0, 1, 0, 1, 0, 1, 0, 1
    51,  1,  340.4546, -220.9473,       630,      -630,   1.0113, 0,     700, 0, 1, 0, 0, 1, 1, 100,       630,        10, 1, 1, 0, 1, 0, 1, 0, 1, 0, 1
    52,  1,  1462.876,  356.7146,      1840,      -540,   1.0611, 0,    3000, 0, 1, 0, 0, 1, 1, 100,      2800,        10, 1, 1, 0, 1, 0, 1, 0, 1, 0, 1
    53,  1,  296.8182,  116.2889,       580,      -540,   1.0611, 0,     600, 0, 1, 0, 0, 1, 1, 100,       540,        10, 1, 1, 0, 1, 0, 1, 0, 1, 0, 1
    54,  1,  320.4545, -0.927939,       630,      -630,   1.0447, 0,     700, 0, 1, 0, 0, 1, 1, 100,       630,        10, 1, 1, 0, 1, 0, 1, 0, 1, 0, 1
    55,  1,       350, -36.55374,       630,      -630,   1.0369, 0,     700, 0, 1, 0, 0, 1, 1, 100,       630,        10, 1, 1, 0, 1, 0, 1, 0, 1, 0, 1
    56,  1,  300.8182, -56.74259,       540,      -540,   1.0116, 0,     600, 0, 1, 0, 0, 1, 1, 100,       540,        10, 1, 1, 0, 1, 0, 1, 0, 1, 0, 1
    57,  1,  300.8182,  75.34606,       540,      -540,    1.029, 0,     600, 0, 1, 0, 0, 1, 1, 100,       540,        10, 1, 1, 0, 1, 0, 1, 0, 1, 0, 1
    58,  1,  300.8182,  75.34606,       540,      -540,    1.029, 0,     600, 0, 1, 0, 0, 1, 1, 100,       540,        10, 1, 1, 0, 1, 0, 1, 0, 1, 0, 1
    59,  1,  246.7932,  140.8962,       520,      -450,     1.03, 0,     600, 0, 1, 0, 0, 1, 1, 100,       560,        10, 1, 1, 0, 1, 0, 1, 0, 1, 0, 1
    60,  1,  1296.387,  454.4411,      4000,     -2050,   1.0185, 0,    5000, 0, 1, 0, 0, 1, 1, 100,      4500,        10, 1, 1, 0, 1, 0, 1, 0, 1, 0, 1
0 / END OF GENERATOR DATA, BEGIN BRANCH DATA
     1,      3, 1,     0.01,     0.07, 0.013804,     175,     175,     175, 0, 0, 0, 0, 1, 1, 0, 1, 1, 0, 1, 0, 1, 0, 1
     1,      3, 2,     0.01,     0.07, 0.013804,     175,     175,     175, 0, 0, 0, 0, 1, 1, 0, 1, 1, 0, 1, 0, 1, 0, 1
     2,     24, 1, 0.014024,     0.09, 0.018052,     175,     175,     175, 0, 0, 0, 0, 1, 1, 0, 1, 1, 0, 1, 0, 1, 0, 1
     2,     24, 2, 0.014024,     0.09, 0.018052,     175,     175,     175, 0, 0, 0, 0, 1, 1, 0, 1, 1, 0, 1, 0, 1, 0, 1
     3,     24, 1, 0.006982,     0.05, 0.010088,     175,     175,     175, 0, 0, 0, 0, 1, 1, 0, 1, 1, 0, 1, 0, 1, 0, 1
     3,     24, 2, 0.006982,     0.05, 0.010088,     175,     175,     175, 0, 0, 0, 0, 1, 1, 0, 1, 1, 0, 1, 0, 1, 0, 1
    25,      4, 1,     0.03,      0.2, 0.030263,     175,     175,     175, 0, 0, 0, 0, 1, 1, 0, 1, 1, 0, 1, 0, 1, 0, 1
    25,      4, 2,     0.03,      0.2, 0.030263,     175,     175,     175, 0, 0, 0, 0, 1, 1, 0, 1, 1, 0, 1, 0, 1, 0, 1
     5,      7, 1,     0.01,     0.06, 0.012211,     175,     175,     175, 0, 0, 0, 0, 1, 1, 0, 1, 1, 0, 1, 0, 1, 0, 1
     5,      7, 2,     0.01,     0.06, 0.012211,     175,     175,     175, 0, 0, 0, 0, 1, 1, 0, 1, 1, 0, 1, 0, 1, 0, 1
     5,      9, 1,  0.01497,     0.12, 0.024954,     175,     175,     175, 0, 0, 0, 0, 1, 1, 0, 1, 1, 0, 1, 0, 1, 0, 1
     5,      9, 2,  0.01497,     0.12, 0.024954,     175,     175,     175, 0, 0, 0, 0, 1, 1, 0, 1, 1, 0, 1, 0, 1, 0, 1
     6,      8, 1, 0.037988,     0.28, 0.059995,     175,     175,     175, 0, 0, 0, 0, 1, 1, 0, 1, 1, 0, 1, 0, 1, 0, 1
     6,      8, 2, 0.037988,     0.28, 0.059995,     175,     175,     175, 0, 0, 0, 0, 1, 1, 0, 1, 1, 0, 1, 0, 1, 0, 1
     6,      9, 1,     0.05,      0.3, 0.059995,     175,     175,     175, 0, 0, 0, 0, 1, 1, 0, 1, 1, 0, 1, 0, 1, 0, 1
     7,      8, 1,     0.01,     0.08, 0.015928,     175,     175,     175, 0, 0, 0, 0, 1, 1, 0, 1, 1, 0, 1, 0, 1, 0, 1
     7,      8, 2,     0.01,     0.08, 0.015928,     175,     175,     175, 0, 0, 0, 0, 1, 1, 0, 1, 1, 0, 1, 0, 1, 0, 1
    10,     11, 1, 0.012004,     0.09, 0.015205,     250,     250,     250, 0, 0, 0, 0, 1, 1, 0, 1, 1, 0, 1, 0, 1, 0, 1
    10,     11, 2, 0.012004,     0.09, 0.015205,     250,     250,     250, 0, 0, 0, 0, 1, 1, 0, 1, 1, 0, 1, 0, 1, 0, 1
    26,     23, 1,    0.001,    0.008, 0.201062,     700,     700,     700, 0, 0, 0, 0, 1, 1, 0, 1, 1, 0, 1, 0, 1, 0, 1
    26,     27, 1,    0.006,     0.06, 1.799488,     700,     700,     700, 0, 0, 0, 0, 1, 1, 0, 1, 1, 0, 1, 0, 1, 0, 1
    26,     28, 1,    0.004,     0.04, 1.201344,     700,     700,     700, 0, 0, 0, 0, 1, 1, 0, 1, 1, 0, 1, 0, 1, 0, 1
    26,     12, 1,    0.005,    0.045,   1.4024,     700,     700,     700, 0, 0, 0, 0, 1, 1, 0, 1, 1, 0, 1, 0, 1, 0, 1
    23,     28, 1,    0.004,    0.035,  1.05056,     700,     700,     700, 0, 0, 0, 0, 1, 1, 0, 1, 1, 0, 1, 0, 1, 0, 1
    23,     12, 1,    0.005,     0.05,  1.49792,     700,     700,     700, 0, 0, 0, 0, 1, 1, 0, 1, 1, 0, 1, 0, 1, 0, 1
    27,     29, 1,    0.004,     0.04, 1.201344,     700,     700,     700, 0, 0, 0, 0, 1, 1, 0, 1, 1, 0, 1, 0, 1, 0, 1
    27,     30, 1,     0.01,      0.1, 3.000864,     700,     700,     700, 0, 0, 0, 0, 1, 1, 0, 1, 1, 0, 1, 0, 1, 0, 1
    30,     15, 1,        0,    -0.04,        0,     700,     700,     700, 0, 0, 0, 0, 1, 1, 0, 1, 1, 0, 1, 0, 1, 0, 1
    28,     31, 1,    0.004,     0.04, 1.201344,     700,     700,     700, 0, 0, 0, 0, 1, 1, 0, 1, 1, 0, 1, 0, 1, 0, 1
    28,     31, 2,    0.004,     0.04, 1.201344,     700,     700,     700, 0, 0, 0, 0, 1, 1, 0, 1, 1, 0, 1, 0, 1, 0, 1
    31,     29, 1,    0.001,     0.01, 0.301594,     700,     700,     700, 0, 0, 0, 0, 1, 1, 0, 1, 1, 0, 1, 0, 1, 0, 1
    31,     32, 1,    0.006,     0.08, 2.397664,     700,     700,     700, 0, 0, 0, 0, 1, 1, 0, 1, 1, 0, 1, 0, 1, 0, 1
    32,     14, 1,        0,    -0.04,        0,     700,     700,     700, 0, 0, 0, 0, 1, 1, 0, 1, 1, 0, 1, 0, 1, 0, 1
    31,     33, 1,    0.006,     0.08, 2.397664,     700,     700,     700, 0, 0, 0, 0, 1, 1, 0, 1, 1, 0, 1, 0, 1, 0, 1
    33,     14, 1,        0,    -0.04,        0,     700,     700,     700, 0, 0, 0, 0, 1, 1, 0, 1, 1, 0, 1, 0, 1, 0, 1
    29,     34, 1,     0.01, 0.066669, 2.000576,     700,     700,     700, 0, 0, 0, 0, 1, 1, 0, 1, 1, 0, 1, 0, 1, 0, 1
    34,     15, 1,        0, -0.026669,        0,     700,     700,     700, 0, 0, 0, 0, 1, 1, 0, 1, 1, 0, 1, 0, 1, 0, 1
    29,     35, 1,    0.006,     0.08, 2.397664,     700,     700,     700, 0, 0, 0, 0, 1, 1, 0, 1, 1, 0, 1, 0, 1, 0, 1
    35,     36, 1,        0,    -0.03,        0,     700,     700,     700, 0, 0, 0, 0, 1, 1, 0, 1, 1, 0, 1, 0, 1, 0, 1
    14,     36, 1,    0.003,     0.03, 0.899744,     700,     700,     700, 0, 0, 0, 0, 1, 1, 0, 1, 1, 0, 1, 0, 1, 0, 1
    14,     20, 1,    0.006,    0.045, 1.301888,     700,     700,     700, 0, 0, 0, 0, 1, 1, 0, 1, 1, 0, 1, 0, 1, 0, 1
    15,     16, 1,    0.002,    0.015, 0.497632,     700,     700,     700, 0, 0, 0, 0, 1, 1, 0, 1, 1, 0, 1, 0, 1, 0, 1
    15,     36, 1,    0.002,     0.02, 0.598176,     700,     700,     700, 0, 0, 0, 0, 1, 1, 0, 1, 1, 0, 1, 0, 1, 0, 1
    16,     36, 1,    0.001,     0.01, 0.301594,     700,     700,     700, 0, 0, 0, 0, 1, 1, 0, 1, 1, 0, 1, 0, 1, 0, 1
    16,     17, 1,    0.001,     0.01, 0.301594,     700,     700,     700, 0, 0, 0, 0, 1, 1, 0, 1, 1, 0, 1, 0, 1, 0, 1
    16,     18, 1,    0.002,     0.02, 0.598176,     700,     700,     700, 0, 0, 0, 0, 1, 1, 0, 1, 1, 0, 1, 0, 1, 0, 1
    36,     37, 1,    0.002,     0.02, 0.598176,     700,     700,     700, 0, 0, 0, 0, 1, 1, 0, 1, 1, 0, 1, 0, 1, 0, 1
    36,     37, 2,    0.002,     0.02, 0.598176,     700,     700,     700, 0, 0, 0, 0, 1, 1, 0, 1, 1, 0, 1, 0, 1, 0, 1
    37,     19, 1,    0.004,     0.04, 1.201344,     700,     700,     700, 0, 0, 0, 0, 1, 1, 0, 1, 1, 0, 1, 0, 1, 0, 1
    37,     19, 2,    0.004,     0.04, 1.201344,     700,     700,     700, 0, 0, 0, 0, 1, 1, 0, 1, 1, 0, 1, 0, 1, 0, 1
    37,     21, 1,    0.011,     0.08, 2.397664,     700,     700,     700, 0, 0, 0, 0, 1, 1, 0, 1, 1, 0, 1, 0, 1, 0, 1
    17,     18, 1,    0.001,    0.015, 0.497632,     700,     700,     700, 0, 0, 0, 0, 1, 1, 0, 1, 1, 0, 1, 0, 1, 0, 1
    20,     21, 1,    0.002,     0.02, 0.598176,     700,     700,     700, 0, 0, 0, 0, 1, 1, 0, 1, 1, 0, 1, 0, 1, 0, 1
    21,     22, 1,    0.003,     0.03, 0.899744,     700,     700,     700, 0, 0, 0, 0, 1, 1, 0, 1, 1, 0, 1, 0, 1, 0, 1
    21,     22, 2,    0.003,     0.03, 0.899744,     700,     700,     700, 0, 0, 0, 0, 1, 1, 0, 1, 1, 0, 1, 0, 1, 0, 1
    12,     13, 1,    0.003,     0.03, 3.000864,     700,     700,     700, 0, 0, 0, 0, 1, 1, 0, 1, 1, 0, 1, 0, 1, 0, 1
    12,     13, 2,    0.003,     0.03, 3.000864,     700,     700,     700, 0, 0, 0, 0, 1, 1, 0, 1, 1, 0, 1, 0, 1, 0, 1
0 / END OF BRANCH DATA, BEGIN TRANSFORMER DATA
     2,     38, 0, 1, 1, 1, 1, 0, 0, 2, '            ', 1, 1, 1, 0, 1, 0, 1, 0, 1, '            '
0, 0.01875, 100
    1, 0,     0,     800,     800,     800, 0, 0, 1.1, 0.9, 1.1, 0.9, 33, 0, 0, 0, 0
    1, 0
     3,     39, 0, 1, 1, 1, 1, 0, 0, 2, '            ', 1, 1, 1, 0, 1, 0, 1, 0, 1, '            '
0, 0.025, 100
    1, 0,     0,     600,     600,     600, 0, 0, 1.1, 0.9, 1.1, 0.9, 33, 0, 0, 0, 0
    1, 0
    24,     40, 0, 1, 1, 1, 1, 0, 0, 2, '            ', 1, 1, 1, 0, 1, 0, 1, 0, 1, '            '
0, 0.021429, 100
    1, 0,     0,     700,     700,     700, 0, 0, 1.1, 0.9, 1.1, 0.9, 33, 0, 0, 0, 0
    1, 0
    25,     41, 0, 1, 1, 1, 1, 0, 0, 2, '            ', 1, 1, 1, 0, 1, 0, 1, 0, 1, '            '
0, 0.025, 100
    1, 0,     0,     600,     600,     600, 0, 0, 1.1, 0.9, 1.1, 0.9, 33, 0, 0, 0, 0
    1, 0
     4,     42, 0, 1, 1, 1, 1, 0, 0, 2, '            ', 1, 1, 1, 0, 1, 0, 1, 0, 1, '            '
0, 0.06, 100
    1, 0,     0,    1250,    1250,    1250, 0, 0, 1.1, 0.9, 1.1, 0.9, 33, 0, 0, 0, 0
    1, 0
     6,     43, 0, 1, 1, 1, 1, 0, 0, 2, '            ', 1, 1, 1, 0, 1, 0, 1, 0, 1, '            '
0, 0.0375, 100
    1, 0,     0,     400,     400,     400, 0, 0, 1.1, 0.9, 1.1, 0.9, 33, 0, 0, 0, 0
    1, 0
     7,     44, 0, 1, 1, 1, 1, 0, 0, 2, '            ', 1, 1, 1, 0, 1, 0, 1, 0, 1, '            '
0, 0.075, 100
    1, 0,     0,    1200,    1200,    1200, 0, 0, 1.1, 0.9, 1.1, 0.9, 33, 0, 0, 0, 0
    1, 0
    11,     45, 0, 1, 1, 1, 1, 0, 0, 2, '            ', 1, 1, 1, 0, 1, 0, 1, 0, 1, '            '
0, 0.017647, 100
    1, 0,     0,     850,     850,     850, 0, 0, 1.1, 0.9, 1.1, 0.9, 33, 0, 0, 0, 0
    1, 0
    26,     46, 0, 1, 1, 1, 1, 0, 0, 2, '            ', 1, 1, 1, 0, 1, 0, 1, 0, 1, '            '
0, 0.015, 100
    1, 0,     0,    1000,    1000,    1000, 0, 0, 1.1, 0.9, 1.1, 0.9, 33, 0, 0, 0, 0
    1, 0
    23,     47, 0, 1, 1, 1, 1, 0, 0, 2, '            ', 1, 1, 1, 0, 1, 0, 1, 0, 1, '            '
0, 0.01875, 100
    1, 0,     0,     800,     800,     800, 0, 0, 1.1, 0.9, 1.1, 0.9, 33, 0, 0, 0, 0
    1, 0
    27,     48, 0, 1, 1, 1, 1, 0, 0, 2, '            ', 1, 1, 1, 0, 1, 0, 1, 0, 1, '            '
0, 0.05, 100
    1, 0,     0,     300,     300,     300, 0, 0, 1.1, 0.9, 1.1, 0.9, 33, 0, 0, 0, 0
    1, 0
    31,     49, 0, 1, 1, 1, 1, 0, 0, 2, '            ', 1, 1, 1, 0, 1, 0, 1, 0, 1, '            '
0, 0.042857, 100
    1, 0,     0,    1350,    1350,    1350, 0, 0, 1.1, 0.9, 1.1, 0.9, 33, 0, 0, 0, 0
    1, 0
    14,     50, 0, 1, 1, 1, 1, 0, 0, 2, '            ', 1, 1, 1, 0, 1, 0, 1, 0, 1, '            '
0, 0.033333, 100
    1, 0,     0,     300,     300,     300, 0, 0, 1.1, 0.9, 1.1, 0.9, 33, 0, 0, 0, 0
    1, 0
    15,     51, 0, 1, 1, 1, 1, 0, 0, 2, '            ', 1, 1, 1, 0, 1, 0, 1, 0, 1, '            '
0, 0.021429, 100
    1, 0,     0,     700,     700,     700, 0, 0, 1.1, 0.9, 1.1, 0.9, 33, 0, 0, 0, 0
    1, 0
    18,     52, 0, 1, 1, 1, 1, 0, 0, 2, '            ', 1, 1, 1, 0, 1, 0, 1, 0, 1, '            '
0, 0.025, 100
    1, 0,     0,     600,     600,     600, 0, 0, 1.1, 0.9, 1.1, 0.9, 33, 0, 0, 0, 0
    1, 0
    18,     53, 0, 1, 1, 1, 1, 0, 0, 2, '            ', 1, 1, 1, 0, 1, 0, 1, 0, 1, '            '
0, 0.025, 100
    1, 0,     0,     600,     600,     600, 0, 0, 1.1, 0.9, 1.1, 0.9, 33, 0, 0, 0, 0
    1, 0
    19,     54, 0, 1, 1, 1, 1, 0, 0, 2, '            ', 1, 1, 1, 0, 1, 0, 1, 0, 1, '            '
0, 0.021429, 100
    1, 0,     0,     700,     700,     700, 0, 0, 1.1, 0.9, 1.1, 0.9, 33, 0, 0, 0, 0
    1, 0
    19,     55, 0, 1, 1, 1, 1, 0, 0, 2, '            ', 1, 1, 1, 0, 1, 0, 1, 0, 1, '            '
0, 0.021429, 100
    1, 0,     0,     700,     700,     700, 0, 0, 1.1, 0.9, 1.1, 0.9, 33, 0, 0, 0, 0
    1, 0
    21,     56, 0, 1, 1, 1, 1, 0, 0, 2, '            ', 1, 1, 1, 0, 1, 0, 1, 0, 1, '            '
0, 0.025, 100
    1, 0,     0,     600,     600,     600, 0, 0, 1.1, 0.9, 1.1, 0.9, 33, 0, 0, 0, 0
    1, 0
    22,     57, 0, 1, 1, 1, 1, 0, 0, 2, '            ', 1, 1, 1, 0, 1, 0, 1, 0, 1, '            '
0, 0.025, 100
    1, 0,     0,     600,     600,     600, 0, 0, 1.1, 0.9, 1.1, 0.9, 33, 0, 0, 0, 0
    1, 0
    22,     58, 0, 1, 1, 1, 1, 0, 0, 2, '            ', 1, 1, 1, 0, 1, 0, 1, 0, 1, '            '
0, 0.025, 100
    1, 0,     0,     600,     600,     600, 0, 0, 1.1, 0.9, 1.1, 0.9, 33, 0, 0, 0, 0
    1, 0
    12,     59, 0, 1, 1, 1, 1, 0, 0, 2, '            ', 1, 1, 1, 0, 1, 0, 1, 0, 1, '            '
0, 0.03, 100
    1, 0,     0,     500,     500,     500, 0, 0, 1.1, 0.9, 1.1, 0.9, 33, 0, 0, 0, 0
    1, 0
    13,     60, 0, 1, 1, 1, 1, 0, 0, 2, '            ', 1, 1, 1, 0, 1, 0, 1, 0, 1, '            '
0, 0.003333, 100
    1, 0,     0,    4500,    4500,    4500, 0, 0, 1.1, 0.9, 1.1, 0.9, 33, 0, 0, 0, 0
    1, 0
    26,      1, 0, 1, 1, 1, 1, 0, 0, 2, '            ', 1, 1, 1, 0, 1, 0, 1, 0, 1, '            '
0, 0.008, 100
0.89286, 0,     0,    1250,    1250,    1250, 0, 0, 1.1, 0.9, 1.1, 0.9, 33, 0, 0, 0, 0
    1, 0
    23,      2, 0, 1, 1, 1, 1, 0, 0, 2, '            ', 1, 1, 1, 0, 1, 0, 1, 0, 1, '            '
0, 0.008, 100
0.89286, 0,     0,    1250,    1250,    1250, 0, 0, 1.1, 0.9, 1.1, 0.9, 33, 0, 0, 0, 0
    1, 0
    28,      4, 0, 1, 1, 1, 1, 0, 0, 2, '            ', 1, 1, 1, 0, 1, 0, 1, 0, 1, '            '
0, 0.012, 100
0.93458, 0,     0,   833.3,   833.3,   833.3, 0, 0, 1.1, 0.9, 1.1, 0.9, 33, 0, 0, 0, 0
    1, 0
    31,     10, 0, 1, 1, 1, 1, 0, 0, 2, '            ', 1, 1, 1, 0, 1, 0, 1, 0, 1, '            '
0, 0.012, 100
0.95238, 0,     0,   833.3,   833.3,   833.3, 0, 0, 1.1, 0.9, 1.1, 0.9, 33, 0, 0, 0, 0
    1, 0
    36,      8, 0, 1, 1, 1, 1, 0, 0, 2, '            ', 1, 1, 1, 0, 1, 0, 1, 0, 1, '            '
0, 0.01, 100
    1, 0,     0,    1000,    1000,    1000, 0, 0, 1.1, 0.9, 1.1, 0.9, 33, 0, 0, 0, 0
    1, 0
    36,      8, 0, 2, 1, 1, 1, 0, 0, 2, '            ', 1, 1, 1, 0, 1, 0, 1, 0, 1, '            '
0, 0.01, 100
    1, 0,     0,    1000,    1000,    1000, 0, 0, 1.1, 0.9, 1.1, 0.9, 33, 0, 0, 0, 0
    1, 0
    37,      9, 0, 1, 1, 1, 1, 0, 0, 2, '            ', 1, 1, 1, 0, 1, 0, 1, 0, 1, '            '
0, 0.01, 100
    1, 0,     0,    1000,    1000,    1000, 0, 0, 1.1, 0.9, 1.1, 0.9, 33, 0, 0, 0, 0
    1, 0
    37,      9, 0, 2, 1, 1, 1, 0, 0, 2, '            ', 1, 1, 1, 0, 1, 0, 1, 0, 1, '            '
0, 0.01, 100
    1, 0,     0,    1000,    1000,    1000, 0, 0, 1.1, 0.9, 1.1, 0.9, 33, 0, 0, 0, 0
    1, 0
0 / END OF TRANSFORMER DATA, BEGIN AREA DATA
0 / END OF AREA DATA, BEGIN TWO-TERMINAL DC DATA
0 / END OF TWO-TERMINAL DC DATA, BEGIN VOLTAGE SOURCE CONVERTER DATA
0 / END OF VOLTAGE SOURCE CONVERTER DATA, BEGIN IMPEDANCE CORRECTION DATA
0 / END OF IMPEDANCE CORRECTION DATA, BEGIN MULTI-TERMINAL DC DATA
0 / END OF MULTI-TERMINAL DC DATA, BEGIN MULTI-SECTION LINE DATA
0 / END OF MULTI-SECTION LINE DATA, BEGIN ZONE DATA
0 / END OF ZONE DATA, BEGIN INTER-AREA TRANSFER DATA
0 / END OF INTER-AREA TRANSFER DATA, BEGIN OWNER DATA
0 / END OF OWNER DATA, BEGIN FACTS CONTROL DEVICE DATA
0 / END OF FACTS CONTROL DEVICE DATA, BEGIN SWITCHED SHUNT DATA
0 / END OF SWITCHED SHUNT DATA, BEGIN GNE DEVICE DATA
0 / END OF GNE DEVICE DATA, BEGIN INDUCTION MACHINE DATA
0 / END OF INDUCTION MACHINE DATA
Q
